instances/data_GOC/Phase_0_RTS96/scenario_30/powersystem.raw
 0,  100.000000
rts96_spring_wday.raw / File written by to_psse.gms
5 / 19 / 2015
101, ' 101 ',138,2,1,1,1,1.00,0.00,1.1,0.9,1.1,0.9
102, ' 102 ',138,2,1,1,1,1.00,0.00,1.1,0.9,1.1,0.9
103, ' 103 ',138,1,1,1,1,1.00,0.00,1.1,0.9,1.1,0.9
104, ' 104 ',138,1,1,1,1,1.00,0.00,1.1,0.9,1.1,0.9
105, ' 105 ',138,1,1,1,1,1.00,0.00,1.1,0.9,1.1,0.9
106, ' 106 ',138,1,1,1,1,1.00,0.00,1.1,0.9,1.1,0.9
107, ' 107 ',138,2,1,1,1,1.00,0.00,1.1,0.9,1.1,0.9
108, ' 108 ',138,1,1,1,1,1.00,0.00,1.1,0.9,1.1,0.9
109, ' 109 ',138,1,1,1,1,1.00,0.00,1.1,0.9,1.1,0.9
110, ' 110 ',138,1,1,1,1,1.00,0.00,1.1,0.9,1.1,0.9
111, ' 111 ',230,1,1,1,1,1.00,0.00,1.1,0.9,1.1,0.9
112, ' 112 ',230,1,1,1,1,1.00,0.00,1.1,0.9,1.1,0.9
113, ' 113 ',230,3,1,1,1,1.00,0.00,1.1,0.9,1.1,0.9
114, ' 114 ',230,2,1,1,1,1.00,0.00,1.1,0.9,1.1,0.9
115, ' 115 ',230,2,1,1,1,1.00,0.00,1.1,0.9,1.1,0.9
116, ' 116 ',230,2,1,1,1,1.00,0.00,1.1,0.9,1.1,0.9
117, ' 117 ',230,1,1,1,1,1.00,0.00,1.1,0.9,1.1,0.9
118, ' 118 ',230,2,1,1,1,1.00,0.00,1.1,0.9,1.1,0.9
119, ' 119 ',230,1,1,1,1,1.00,0.00,1.1,0.9,1.1,0.9
120, ' 120 ',230,1,1,1,1,1.00,0.00,1.1,0.9,1.1,0.9
121, ' 121 ',230,2,1,1,1,1.00,0.00,1.1,0.9,1.1,0.9
122, ' 122 ',230,2,1,1,1,1.00,0.00,1.1,0.9,1.1,0.9
123, ' 123 ',230,2,1,1,1,1.00,0.00,1.1,0.9,1.1,0.9
124, ' 124 ',230,1,1,1,1,1.00,0.00,1.1,0.9,1.1,0.9
201, ' 201 ',138,2,1,1,1,1.00,0.00,1.1,0.9,1.1,0.9
202, ' 202 ',138,2,1,1,1,1.00,0.00,1.1,0.9,1.1,0.9
203, ' 203 ',138,1,1,1,1,1.00,0.00,1.1,0.9,1.1,0.9
204, ' 204 ',138,1,1,1,1,1.00,0.00,1.1,0.9,1.1,0.9
205, ' 205 ',138,1,1,1,1,1.00,0.00,1.1,0.9,1.1,0.9
206, ' 206 ',138,1,1,1,1,1.00,0.00,1.1,0.9,1.1,0.9
207, ' 207 ',138,2,1,1,1,1.00,0.00,1.1,0.9,1.1,0.9
208, ' 208 ',138,1,1,1,1,1.00,0.00,1.1,0.9,1.1,0.9
209, ' 209 ',138,1,1,1,1,1.00,0.00,1.1,0.9,1.1,0.9
210, ' 210 ',138,1,1,1,1,1.00,0.00,1.1,0.9,1.1,0.9
211, ' 211 ',230,1,1,1,1,1.00,0.00,1.1,0.9,1.1,0.9
212, ' 212 ',230,1,1,1,1,1.00,0.00,1.1,0.9,1.1,0.9
213, ' 213 ',230,2,1,1,1,1.00,0.00,1.1,0.9,1.1,0.9
214, ' 214 ',230,2,1,1,1,1.00,0.00,1.1,0.9,1.1,0.9
215, ' 215 ',230,2,1,1,1,1.00,0.00,1.1,0.9,1.1,0.9
216, ' 216 ',230,2,1,1,1,1.00,0.00,1.1,0.9,1.1,0.9
217, ' 217 ',230,1,1,1,1,1.00,0.00,1.1,0.9,1.1,0.9
218, ' 218 ',230,2,1,1,1,1.00,0.00,1.1,0.9,1.1,0.9
219, ' 219 ',230,1,1,1,1,1.00,0.00,1.1,0.9,1.1,0.9
220, ' 220 ',230,1,1,1,1,1.00,0.00,1.1,0.9,1.1,0.9
221, ' 221 ',230,2,1,1,1,1.00,0.00,1.1,0.9,1.1,0.9
222, ' 222 ',230,2,1,1,1,1.00,0.00,1.1,0.9,1.1,0.9
223, ' 223 ',230,2,1,1,1,1.00,0.00,1.1,0.9,1.1,0.9
224, ' 224 ',230,1,1,1,1,1.00,0.00,1.1,0.9,1.1,0.9
301, ' 301 ',138,2,1,1,1,1.00,0.00,1.1,0.9,1.1,0.9
302, ' 302 ',138,2,1,1,1,1.00,0.00,1.1,0.9,1.1,0.9
303, ' 303 ',138,1,1,1,1,1.00,0.00,1.1,0.9,1.1,0.9
304, ' 304 ',138,1,1,1,1,1.00,0.00,1.1,0.9,1.1,0.9
305, ' 305 ',138,1,1,1,1,1.00,0.00,1.1,0.9,1.1,0.9
306, ' 306 ',138,1,1,1,1,1.00,0.00,1.1,0.9,1.1,0.9
307, ' 307 ',138,2,1,1,1,1.00,0.00,1.1,0.9,1.1,0.9
308, ' 308 ',138,1,1,1,1,1.00,0.00,1.1,0.9,1.1,0.9
309, ' 309 ',138,1,1,1,1,1.00,0.00,1.1,0.9,1.1,0.9
310, ' 310 ',138,1,1,1,1,1.00,0.00,1.1,0.9,1.1,0.9
311, ' 311 ',230,1,1,1,1,1.00,0.00,1.1,0.9,1.1,0.9
312, ' 312 ',230,1,1,1,1,1.00,0.00,1.1,0.9,1.1,0.9
313, ' 313 ',230,2,1,1,1,1.00,0.00,1.1,0.9,1.1,0.9
314, ' 314 ',230,2,1,1,1,1.00,0.00,1.1,0.9,1.1,0.9
315, ' 315 ',230,2,1,1,1,1.00,0.00,1.1,0.9,1.1,0.9
316, ' 316 ',230,2,1,1,1,1.00,0.00,1.1,0.9,1.1,0.9
317, ' 317 ',230,1,1,1,1,1.00,0.00,1.1,0.9,1.1,0.9
318, ' 318 ',230,2,1,1,1,1.00,0.00,1.1,0.9,1.1,0.9
319, ' 319 ',230,1,1,1,1,1.00,0.00,1.1,0.9,1.1,0.9
320, ' 320 ',230,1,1,1,1,1.00,0.00,1.1,0.9,1.1,0.9
321, ' 321 ',230,2,1,1,1,1.00,0.00,1.1,0.9,1.1,0.9
322, ' 322 ',230,2,1,1,1,1.00,0.00,1.1,0.9,1.1,0.9
323, ' 323 ',230,2,1,1,1,1.00,0.00,1.1,0.9,1.1,0.9
324, ' 324 ',230,1,1,1,1,1.00,0.00,1.1,0.9,1.1,0.9
325, ' 325 ',230,1,1,1,1,1.00,0.00,1.1,0.9,1.1,0.9
0 / END OF BUS DATA, BEGIN LOAD DATA
101, '1 ',1,11,11,63.281421871849886,15.102223916383368,0.0,0.0,0.0,0.0,1,1,0
102, '1 ',1,11,12,57.58031402046424,10.340220539339818,0.0,0.0,0.0,0.0,1,1,0
103, '1 ',1,11,11,103.23194513659458,27.825314940547102,0.0,0.0,0.0,0.0,1,1,0
104, '1 ',1,11,11,45.043516375385316,11.353217682311078,0.0,0.0,0.0,0.0,1,1,0
105, '1 ',1,11,11,47.77891127535236,8.822742430361453,0.0,0.0,0.0,0.0,1,1,0
106, '1 ',1,11,12,68.0643786529094,22.50692092822529,0.0,0.0,0.0,0.0,1,1,0
107, '1 ',1,11,12,112.42249026018544,18.87133861368522,0.0,0.0,0.0,0.0,1,1,0
108, '1 ',1,11,12,152.59027575082536,27.66101840721094,0.0,0.0,0.0,0.0,1,1,0
109, '1 ',1,11,13,115.94255334539689,21.752602100547218,0.0,0.0,0.0,0.0,1,1,0
110, '1 ',1,11,13,108.12008739707059,33.80384390017949,0.0,0.0,0.0,0.0,1,1,0
111, '1 ',1,11,13,0.0,0.0,0.0,0.0,0.0,0.0,1,1,0
112, '1 ',1,11,13,0.0,0.0,0.0,0.0,0.0,0.0,1,1,0
113, '1 ',1,12,14,195.36899517902756,40.07086473574647,0.0,0.0,0.0,0.0,1,1,0
114, '1 ',1,12,16,173.44647205790878,30.083732385460753,0.0,0.0,0.0,0.0,1,1,0
115, '1 ',1,12,16,256.2218083658381,51.37576737654805,0.0,0.0,0.0,0.0,1,1,0
116, '1 ',1,12,16,68.14390949313528,17.89943155377824,0.0,0.0,0.0,0.0,1,1,0
117, '1 ',1,12,17,0.0,0.0,0.0,0.0,0.0,0.0,1,1,0
118, '1 ',1,12,17,262.7845658691603,47.32073368700501,0.0,0.0,0.0,0.0,1,1,0
119, '1 ',1,12,15,121.97246459644573,18.266882052657984,0.0,0.0,0.0,0.0,1,1,0
120, '1 ',1,12,15,88.99855012232065,21.19098675162457,0.0,0.0,0.0,0.0,1,1,0
121, '1 ',1,12,17,0.0,0.0,0.0,0.0,0.0,0.0,1,1,0
122, '1 ',1,12,17,0.0,0.0,0.0,0.0,0.0,0.0,1,1,0
123, '1 ',1,12,15,0.0,0.0,0.0,0.0,0.0,0.0,1,1,0
124, '1 ',1,12,16,0.0,0.0,0.0,0.0,0.0,0.0,1,1,0
201, '1 ',1,21,21,57.372188732242016,17.213743422152383,0.0,0.0,0.0,0.0,1,1,0
202, '1 ',1,21,22,62.80043556943825,16.66189197763335,0.0,0.0,0.0,0.0,1,1,0
203, '1 ',1,21,21,117.75889203321374,27.82580038120765,0.0,0.0,0.0,0.0,1,1,0
204, '1 ',1,21,21,53.18130524306287,12.044899113191525,0.0,0.0,0.0,0.0,1,1,0
205, '1 ',1,21,21,55.88126794605386,8.158418655816558,0.0,0.0,0.0,0.0,1,1,0
206, '1 ',1,21,22,69.88163609007597,15.965855630146713,0.0,0.0,0.0,0.0,1,1,0
207, '1 ',1,21,22,77.17833082692815,16.24283936625696,0.0,0.0,0.0,0.0,1,1,0
208, '1 ',1,21,22,129.71848179644786,20.758028601059454,0.0,0.0,0.0,0.0,1,1,0
209, '1 ',1,21,23,137.7300590006495,22.816232088242657,0.0,0.0,0.0,0.0,1,1,0
210, '1 ',1,21,23,94.7751202426208,19.682250041853635,0.0,0.0,0.0,0.0,1,1,0
211, '1 ',1,21,23,0.0,0.0,0.0,0.0,0.0,0.0,1,1,0
212, '1 ',1,21,23,0.0,0.0,0.0,0.0,0.0,0.0,1,1,0
213, '1 ',1,22,24,222.14776475153496,41.056836027338726,0.0,0.0,0.0,0.0,1,1,0
214, '1 ',1,22,26,124.48769708248108,31.54109498108388,0.0,0.0,0.0,0.0,1,1,0
215, '1 ',1,22,26,237.22978212551547,46.86237180320621,0.0,0.0,0.0,0.0,1,1,0
216, '1 ',1,22,26,83.0220574367931,11.002544918116183,0.0,0.0,0.0,0.0,1,1,0
217, '1 ',1,22,27,0.0,0.0,0.0,0.0,0.0,0.0,1,1,0
218, '1 ',1,22,27,273.17102358384176,46.97471297390778,0.0,0.0,0.0,0.0,1,1,0
219, '1 ',1,22,25,156.90115869513733,23.79851135912854,0.0,0.0,0.0,0.0,1,1,0
220, '1 ',1,22,25,80.66504009200929,19.435965448647178,0.0,0.0,0.0,0.0,1,1,0
221, '1 ',1,22,27,0.0,0.0,0.0,0.0,0.0,0.0,1,1,0
222, '1 ',1,22,27,0.0,0.0,0.0,0.0,0.0,0.0,1,1,0
223, '1 ',1,22,25,0.0,0.0,0.0,0.0,0.0,0.0,1,1,0
224, '1 ',1,22,26,0.0,0.0,0.0,0.0,0.0,0.0,1,1,0
301, '1 ',1,31,31,54.649150370264046,17.0523501152331,0.0,0.0,0.0,0.0,1,1,0
302, '1 ',1,31,32,49.667985383367636,12.0555987750208,0.0,0.0,0.0,0.0,1,1,0
303, '1 ',1,31,31,93.35135177063661,31.76460444798935,0.0,0.0,0.0,0.0,1,1,0
304, '1 ',1,31,31,44.42552290469985,13.086935614156305,0.0,0.0,0.0,0.0,1,1,0
305, '1 ',1,31,31,40.35281103504547,9.000917326914333,0.0,0.0,0.0,0.0,1,1,0
306, '1 ',1,31,32,103.96570170134157,14.532937540671227,0.0,0.0,0.0,0.0,1,1,0
307, '1 ',1,31,32,61.43340718592516,15.811279273823601,0.0,0.0,0.0,0.0,1,1,0
308, '1 ',1,31,32,89.49805994968679,28.089946765716885,0.0,0.0,0.0,0.0,1,1,0
309, '1 ',1,31,33,109.75311931461445,21.593634527339972,0.0,0.0,0.0,0.0,1,1,0
310, '1 ',1,31,33,129.74841297533246,27.121724355166776,0.0,0.0,0.0,0.0,1,1,0
311, '1 ',1,31,33,0.0,0.0,0.0,0.0,0.0,0.0,1,1,0
312, '1 ',1,31,33,0.0,0.0,0.0,0.0,0.0,0.0,1,1,0
313, '1 ',1,32,34,169.87259265190036,29.35849554420076,0.0,0.0,0.0,0.0,1,1,0
314, '1 ',1,32,36,95.52477738266839,32.07729778271383,0.0,0.0,0.0,0.0,1,1,0
315, '1 ',1,32,36,224.9059977804536,55.77243365247845,0.0,0.0,0.0,0.0,1,1,0
316, '1 ',1,32,36,66.2682550332835,10.312181302520445,0.0,0.0,0.0,0.0,1,1,0
317, '1 ',1,32,37,0.0,0.0,0.0,0.0,0.0,0.0,1,1,0
318, '1 ',1,32,37,195.2080213291467,45.11222410471011,0.0,0.0,0.0,0.0,1,1,0
319, '1 ',1,32,35,136.85853888530087,26.212166339064204,0.0,0.0,0.0,0.0,1,1,0
320, '1 ',1,32,35,97.06510031123756,13.2627142910189,0.0,0.0,0.0,0.0,1,1,0
321, '1 ',1,32,37,0.0,0.0,0.0,0.0,0.0,0.0,1,1,0
322, '1 ',1,32,37,0.0,0.0,0.0,0.0,0.0,0.0,1,1,0
323, '1 ',1,32,35,0.0,0.0,0.0,0.0,0.0,0.0,1,1,0
324, '1 ',1,32,36,0.0,0.0,0.0,0.0,0.0,0.0,1,1,0
325, '1 ',1,32,35,0.0,0.0,0.0,0.0,0.0,0.0,1,1,0
0 / END OF LOAD DATA, BEGIN FIXED SHUNT DATA
0 / END OF FIXED SHUNT DATA, BEGIN GENERATOR DATA
101,1,10,0,11.52595790475607,1.3710277019999921,1.035,0,24,0,1,0,0,1,1,100,17.501305700279772,12.386334647322073,1,1,0,1
101,2,10,0,9.886214069090784,2.0230183945968756,1.035,0,24,0,1,0,0,1,1,100,19.996113428846,14.887416229741648,1,1,0,1
101,3,76,14.1,31.55167560093105,-34.563210126711056,1.035,0,89,0,1,0,0,1,1,100,60.927763650938864,3.774625962302089,1,1,0,1
101,4,76,14.1,31.46711882762611,-22.806949666235596,1.035,0,89,0,1,0,0,1,1,100,66.93868501596152,63.435465696729295,1,1,0,1
102,5,10,0,12.421108351554722,2.9539860393851995,1.035,0,24,0,1,0,0,1,1,100,22.783195855095983,17.714640954602512,1,1,0,1
102,6,10,0,7.8617885038256645,-4.76950616016984,1.035,0,24,0,1,0,0,1,1,100,14.713283439166842,9.65452077760361,1,1,0,1
102,7,76,7,25.26686686417088,-13.868019822286442,1.035,0,89,0,1,0,0,1,1,100,88.59231679104268,27.285341477915644,1,1,0,1
102,8,76,7,38.253658179659396,-16.032558686332777,1.035,0,89,0,1,0,0,1,1,100,74.58212434556336,14.013890735916803,1,1,0,1
107,9,80,17.2,63.4681364223361,1.8365817116573524,1.025,0,118,0,1,0,0,1,1,100,82.98170894850045,29.659526188864966,1,1,0,1
107,10,80,17.2,77.9840871328488,18.247582954354584,1.025,0,118,0,1,0,0,1,1,100,111.54321957845241,33.12621678458527,1,1,0,1
107,11,80,17.2,42.81467920448631,-12.707022624090314,1.025,0,118,0,1,0,0,1,1,100,115.53054506424813,52.602284660097204,1,1,0,1
113,12,95.1,40.7,65.80404438823462,-17.17046918347478,1.02,0,232,0,1,0,0,1,1,100,152.00593050662428,53.7300840611034,1,1,0,1
113,13,95.1,40.7,58.4675938040018,-32.673630002886064,1.02,0,232,0,1,0,0,1,1,100,179.0195442202501,58.119011035854925,1,1,0,1
113,14,95.1,40.7,87.8225591480732,24.756162654608488,1.02,0,232,0,1,0,0,1,1,100,206.88389588086864,47.41704447467342,1,1,0,1
114,15,0,13.7,158.58708659186956,-59.85133419046181,0.98,0,100,0,1,0,0,1,1,100,0.0,0.0,1,1,0,1
115,16,12,0,5.09669183967635,0.1949454490095377,1.014,0,14,0,1,0,0,1,1,100,12.066086176782846,3.8625276053852358,1,1,0,1
115,17,12,0,4.436786958295851,-1.466404416225851,1.014,0,14,0,1,0,0,1,1,100,14.215086499974133,3.44728996820748,1,1,0,1
115,18,12,0,6.580560235306621,0.8176349300891168,1.014,0,14,0,1,0,0,1,1,100,11.06436269581318,1.2456970247626327,1,1,0,1
115,19,12,0,7.197881773766131,2.422493263240905,1.014,0,14,0,1,0,0,1,1,100,9.199142649583518,2.956023817828253,1,1,0,1
115,20,12,0,5.813752384856343,-0.5280363877303893,1.014,0,14,0,1,0,0,1,1,100,8.991403725743293,1.4296112166345116,1,1,0,1
115,21,155,0.05,80.94116726145148,-12.63039745343849,1.014,0,182,0,1,0,0,1,1,100,194.28038473473862,88.37608012218261,1,1,0,1
116,22,155,25.22,97.54049118235707,-55.295270431321114,1.017,0,182,0,1,0,0,1,1,100,123.47780111758037,8.426863663189565,1,1,0,1
118,23,400,137.4,153.61970548518,-43.69999843649566,1.05,0,471,0,1,0,0,1,1,100,449.1184921003878,78.12601900659502,1,1,0,1
121,24,400,108.2,225.9018034487963,-8.189796360675217,1.05,0,471,0,1,0,0,1,1,100,469.3178378790617,239.3393497169018,1,1,0,1
122,25,50,-4.96,13.610494703799485,-5.63185896705836,1.05,0,53,0,1,0,0,1,1,100,52.205340107902884,12.972458861768246,1,1,0,1
122,26,50,-4.96,16.637432605028152,-4.68297991659492,1.05,0,53,0,1,0,0,1,1,100,39.78171707596629,33.54577904475062,1,1,0,1
122,27,50,-4.96,17.934362216293813,-4.107144653424619,1.05,0,53,0,1,0,0,1,1,100,51.0901723220013,8.812478352338069,1,1,0,1
122,28,50,-4.96,15.081236915290356,-15.774681291822345,1.05,0,53,0,1,0,0,1,1,100,43.35798804415389,36.17617530505579,1,1,0,1
122,29,50,-4.96,16.90165697708726,-4.321404846571383,1.05,0,53,0,1,0,0,1,1,100,56.549635322298855,6.415837418753661,1,1,0,1
122,30,50,-4.96,17.995242927223444,-8.744676311220974,1.05,0,53,0,1,0,0,1,1,100,40.25525231147184,7.58335225828227,1,1,0,1
123,31,155,31.79,96.26986615359783,-28.53600403247401,1.05,0,182,0,1,0,0,1,1,100,144.9542476234492,21.319146720913707,1,1,0,1
123,32,155,31.79,64.68627913296223,-66.43821556679904,1.05,0,182,0,1,0,0,1,1,100,148.1784603104461,22.293441678280942,1,1,0,1
123,33,350,71.78,150.13767485506833,-50.36298624239862,1.05,0,412,0,1,0,0,1,1,100,332.761012299452,172.39491422101858,1,1,0,1
201,34,10,0,8.472711843904108,-2.8008585646748543,1.035,0,24,0,1,0,0,1,1,100,20.401102744042873,15.72907369133085,1,1,0,1
201,35,10,0,11.116540522314608,0.8622952150180936,1.035,0,24,0,1,0,0,1,1,100,18.232742841355503,13.58976329957135,1,1,0,1
201,36,76,14.1,32.297477496787906,-11.145303428173065,1.035,0,89,0,1,0,0,1,1,100,78.10545124784112,29.585018994957217,1,1,0,1
201,37,76,14.1,23.438058445695788,-21.684055977733806,1.035,0,89,0,1,0,0,1,1,100,91.09248737301677,39.15172354456037,1,1,0,1
202,38,10,0,12.635510205291212,2.65878155361861,1.035,0,24,0,1,0,0,1,1,100,21.91092924028635,17.755215896740555,1,1,0,1
202,39,10,0,10.851555089931935,3.126090270001442,1.035,0,24,0,1,0,0,1,1,100,18.112942609936,14.022178600449116,1,1,0,1
202,40,76,7,29.4081921139732,-12.652012719074264,1.035,0,89,0,1,0,0,1,1,100,91.72620381768795,14.81764177229256,1,1,0,1
202,41,76,7,24.269073987845328,-35.074988318607225,1.035,0,89,0,1,0,0,1,1,100,96.47515872921794,42.40789623137563,1,1,0,1
207,42,80,17.2,44.554917820729315,-17.327004714868956,1.025,0,118,0,1,0,0,1,1,100,127.30888718273489,47.400232319487245,1,1,0,1
207,43,80,17.2,73.72215778380634,23.65967926103623,1.025,0,118,0,1,0,0,1,1,100,92.7343114092946,12.357319686561823,1,1,0,1
207,44,80,17.2,65.72433877922595,11.2680176300928,1.025,0,118,0,1,0,0,1,1,100,105.5443397164345,20.27276602108033,1,1,0,1
213,45,95.1,40.7,84.45963380485773,-13.694631066173315,1.02,0,232,0,1,0,0,1,1,100,140.40365941561757,28.92079580998511,1,1,0,1
213,46,95.1,40.7,59.23831821605563,-24.052207365632057,1.02,0,232,0,1,0,0,1,1,100,155.75522144455462,51.174996355820895,1,1,0,1
213,47,95.1,40.7,85.03450558334589,-16.88869183883071,1.02,0,232,0,1,0,0,1,1,100,248.16902131591925,91.08275886058573,1,1,0,1
214,48,0,13.68,145.0732814799994,-35.878483885899215,0.98,0,100,0,1,0,0,1,1,100,0.0,0.0,1,1,0,1
215,49,12,0,7.544453810155392,1.3831157008185997,1.014,0,14,0,1,0,0,1,1,100,9.901580149121582,1.109767643697559,1,1,0,1
215,50,12,0,5.320887303538621,-0.2860157573595643,1.014,0,14,0,1,0,0,1,1,100,14.034590198099615,1.7572987774014486,1,1,0,1
215,51,12,0,7.204566855356098,2.4956735568121085,1.014,0,14,0,1,0,0,1,1,100,8.792414353787898,2.3644223674524856,1,1,0,1
215,52,12,0,5.470281978696585,-1.389419949799775,1.014,0,14,0,1,0,0,1,1,100,9.777792377583681,8.570341744666782,1,1,0,1
215,53,12,0,4.358075494598597,0.02485113507136738,1.014,0,14,0,1,0,0,1,1,100,15.427033372968436,7.546394541263582,1,1,0,1
215,54,155,0.048,86.12667056173086,-53.71991939889267,1.014,0,182,0,1,0,0,1,1,100,183.20249904459342,73.33917957176455,1,1,0,1
216,55,155,25.22,62.94987196847796,-70.48642801586539,1.017,0,182,0,1,0,0,1,1,100,150.10563785256818,20.862221372174105,1,1,0,1
218,56,400,137.4,192.81345666386187,-28.146102325990796,1.05,0,471,0,1,0,0,1,1,100,474.6387462876737,187.61213028803468,1,1,0,1
221,57,400,108.2,194.73774516023695,-18.843929176218808,1.05,0,471,0,1,0,0,1,1,100,318.1929699331522,70.0680256308864,1,1,0,1
222,58,50,-4.96,14.748719918727875,-17.984384950064122,1.05,0,53,0,1,0,0,1,1,100,50.94895184505731,15.687279350406461,1,1,0,1
222,59,50,-4.96,18.773763273656368,-2.222656729910522,1.05,0,53,0,1,0,0,1,1,100,59.14719836786389,7.022621096111834,1,1,0,1
222,60,50,-4.96,18.81373175084591,-11.598298954684285,1.05,0,53,0,1,0,0,1,1,100,64.21658755047247,28.699682776350528,1,1,0,1
222,61,50,-4.96,20.199588354676962,-2.3065633458085344,1.05,0,53,0,1,0,0,1,1,100,35.11811384698375,1.8826487250564345,1,1,0,1
222,62,50,-4.96,18.227178093791007,-13.224835500400513,1.05,0,53,0,1,0,0,1,1,100,49.24818811472505,14.224119166329208,1,1,0,1
222,63,50,-4.96,17.19903285354376,-13.385052717104553,1.05,0,53,0,1,0,0,1,1,100,44.675305366981775,33.691793935821416,1,1,0,1
223,64,155,31.79,59.614523746073246,-76.57888380810618,1.05,0,182,0,1,0,0,1,1,100,109.57504013762808,24.995390427112568,1,1,0,1
223,65,155,31.79,100.61301594600081,-26.13681749533862,1.05,0,182,0,1,0,0,1,1,100,176.74584658327512,67.95124739198945,1,1,0,1
223,66,350,71.78,150.90940430760384,-44.798309643520014,1.05,0,412,0,1,0,0,1,1,100,290.8060261886567,82.60566371493042,1,1,0,1
301,67,10,0,11.749483027029783,-0.8643395486287773,1.035,0,24,0,1,0,0,1,1,100,25.165471345186234,20.70457452545874,1,1,0,1
301,68,10,0,12.84880916820839,0.3642036127857864,1.035,0,24,0,1,0,0,1,1,100,14.688413988798857,10.010950296735391,1,1,0,1
301,69,76,14.1,37.2835962055251,-9.339179896516718,1.035,0,89,0,1,0,0,1,1,100,65.00949279554187,13.135862785652272,1,1,0,1
301,70,76,14.1,29.633639958221465,-12.872962109046057,1.035,0,89,0,1,0,0,1,1,100,61.935013710148624,13.383791488043196,1,1,0,1
302,71,10,0,12.7258768430911,3.630578337237239,1.035,0,24,0,1,0,0,1,1,100,18.759212967939675,14.150111224614085,1,1,0,1
302,72,10,0,8.959218587260693,1.8083689799532294,1.035,0,24,0,1,0,0,1,1,100,21.510630044154823,18.51039858147502,1,1,0,1
302,73,76,7,35.00091503933072,-9.774685812182724,1.035,0,89,0,1,0,0,1,1,100,65.47013849988579,10.976234082728617,1,1,0,1
302,74,76,7,38.84120247652754,-32.60681127104908,1.035,0,89,0,1,0,0,1,1,100,97.63743572086095,31.85232836842536,1,1,0,1
307,75,80,17.2,53.01147276163101,-17.567300610244274,1.025,0,118,0,1,0,0,1,1,100,79.536031964235,15.519293726194071,1,1,0,1
307,76,80,17.2,51.382386311888695,-24.36844228953123,1.025,0,118,0,1,0,0,1,1,100,70.19932922907172,49.064644511331636,1,1,0,1
307,77,80,17.2,76.96213493775576,7.489460558630526,1.025,0,118,0,1,0,0,1,1,100,106.41717692371458,17.93774459278211,1,1,0,1
313,78,95.1,40.7,71.784249920398,-5.977308735251427,1.02,0,232,0,1,0,0,1,1,100,195.04635983752087,52.06805026768242,1,1,0,1
313,79,95.1,40.7,95.57582941651344,4.254665069282055,1.02,0,232,0,1,0,0,1,1,100,250.21660931506196,96.11103827668822,1,1,0,1
313,80,95.1,40.7,74.22406193986535,-15.222290709614754,1.02,0,232,0,1,0,0,1,1,100,226.340792332869,100.01687847022662,1,1,0,1
314,81,0,13.68,152.8328134212643,-75.33009776379913,0.98,0,100,0,1,0,0,1,1,100,0.0,0.0,1,1,0,1
315,82,12,0,6.097653075400739,0.3720120320096605,1.014,0,14,0,1,0,0,1,1,100,9.30867648012936,0.4548228342557613,1,1,0,1
315,83,12,0,6.812703820411116,-0.8760944240726536,1.014,0,14,0,1,0,0,1,1,100,9.005316751264035,8.519471390690454,1,1,0,1
315,84,12,0,4.781431949883699,-2.0275136690586812,1.014,0,14,0,1,0,0,1,1,100,14.639978837594391,3.4417912492901106,1,1,0,1
315,85,12,0,5.588799806311727,-0.4531760087236769,1.014,0,14,0,1,0,0,1,1,100,13.219912115111946,4.637137461975216,1,1,0,1
315,86,12,0,4.719069942366332,-2.5983548219315713,1.014,0,14,0,1,0,0,1,1,100,8.851205827295779,1.923908320963382,1,1,0,1
315,87,155,0.048,69.90443865209818,-31.647115700412527,1.014,0,182,0,1,0,0,1,1,100,141.4586312621832,26.392511115223172,1,1,0,1
316,88,155,25.22,91.22918996959925,-11.646199434529976,1.017,0,182,0,1,0,0,1,1,100,149.62506001698785,26.538562931877095,1,1,0,1
318,89,400,137.4,203.35748148150742,-96.04697408853099,1.05,0,471,0,1,0,0,1,1,100,280.44296821579337,152.22242242343341,1,1,0,1
321,90,400,108.2,216.37329914607108,2.1502381563186646,1.05,0,471,0,1,0,0,1,1,100,303.5565575584769,23.61590870656073,1,1,0,1
322,91,50,-4.96,13.801437678933144,-4.922866244800385,1.05,0,53,0,1,0,0,1,1,100,60.62886046245695,24.16099947877229,1,1,0,1
322,92,50,-4.96,13.849920973926782,-15.563853750098499,1.05,0,53,0,1,0,0,1,1,100,43.86850932845846,25.010687941401514,1,1,0,1
322,93,50,-4.96,16.514815938472747,-4.930477789603174,1.05,0,53,0,1,0,0,1,1,100,56.527129283640534,19.553495224099606,1,1,0,1
322,94,50,-4.96,16.92962350547314,-8.728618931677193,1.05,0,53,0,1,0,0,1,1,100,54.08255733083933,17.381442817859345,1,1,0,1
322,95,50,-4.96,12.852673085033892,-13.746263906359673,1.05,0,53,0,1,0,0,1,1,100,51.39775081304834,11.951767334248878,1,1,0,1
322,96,50,-4.96,19.12538140937686,-2.2766515911556766,1.05,0,53,0,1,0,0,1,1,100,46.68185056420043,8.656731698834761,1,1,0,1
323,97,155,31.79,87.61907101422548,-41.839596637059,1.05,0,182,0,1,0,0,1,1,100,175.31327989324927,82.92656556497094,1,1,0,1
323,98,155,31.79,70.30565573647618,-48.589702173601836,1.05,0,182,0,1,0,0,1,1,100,154.95048375963233,71.44204130059806,1,1,0,1
323,99,350,71.78,119.61202622624114,-3.140636647585765,1.05,0,412,0,1,0,0,1,1,100,400.21239997120574,136.50663341348985,1,1,0,1
0 / END OF GENERATOR DATA, BEGIN BRANCH DATA
101,102,1,0.003,0.014,0.461,210.0,231.6,240.0,0,0,0,0,1,1,0,1,1
101,103,1,0.055,0.211,0.057,210.0,249.6,264.0,0,0,0,0,1,1,0,1,1
101,105,1,0.022,0.085,0.023,210.0,249.6,264.0,0,0,0,0,1,1,0,1,1
102,104,1,0.033,0.127,0.034,210.0,249.6,264.0,0,0,0,0,1,1,0,1,1
102,106,1,0.05,0.192,0.052,210.0,249.6,264.0,0,0,0,0,1,1,0,1,1
103,109,1,0.031,0.119,0.032,210.0,249.6,264.0,0,0,0,0,1,1,0,1,1
104,109,1,0.027,0.104,0.028,210.0,249.6,264.0,0,0,0,0,1,1,0,1,1
105,110,1,0.023,0.088,0.024,210.0,249.6,264.0,0,0,0,0,1,1,0,1,1
106,110,1,0.014,0.061,2.459,210.0,231.6,240.0,0,0,0,0,1,1,0,1,1
107,108,1,0.016,0.061,0.017,210.0,249.6,264.0,0,0,0,0,1,1,0,1,1
107,203,1,0.042,0.161,0.044,210.0,249.6,264.0,0,0,0,0,1,1,0,1,1
108,109,1,0.043,0.165,0.045,210.0,249.6,264.0,0,0,0,0,1,1,0,1,1
108,110,1,0.043,0.165,0.045,210.0,249.6,264.0,0,0,0,0,1,1,0,1,1
111,113,1,0.006,0.048,0.1,600.0,720.0,750.0,0,0,0,0,1,1,0,1,1
111,114,1,0.005,0.042,0.088,600.0,720.0,750.0,0,0,0,0,1,1,0,1,1
112,113,1,0.006,0.048,0.1,600.0,720.0,750.0,0,0,0,0,1,1,0,1,1
112,123,1,0.012,0.097,0.203,600.0,720.0,750.0,0,0,0,0,1,1,0,1,1
113,123,1,0.011,0.087,0.182,600.0,720.0,750.0,0,0,0,0,1,1,0,1,1
113,215,1,0.01,0.075,0.158,600.0,720.0,750.0,0,0,0,0,1,1,0,1,1
114,116,1,0.005,0.059,0.082,600.0,720.0,750.0,0,0,0,0,1,1,0,1,1
115,116,1,0.002,0.017,0.036,600.0,720.0,750.0,0,0,0,0,1,1,0,1,1
115,121,1,0.006,0.049,0.103,600.0,720.0,750.0,0,0,0,0,1,1,0,1,1
115,121,2,0.006,0.049,0.103,600.0,720.0,750.0,0,0,0,0,1,1,0,1,1
115,124,1,0.007,0.052,0.109,600.0,720.0,750.0,0,0,0,0,1,1,0,1,1
116,117,1,0.003,0.026,0.055,600.0,720.0,750.0,0,0,0,0,1,1,0,1,1
116,119,1,0.003,0.023,0.049,600.0,720.0,750.0,0,0,0,0,1,1,0,1,1
117,118,1,0.002,0.014,0.03,600.0,720.0,750.0,0,0,0,0,1,1,0,1,1
117,122,1,0.014,0.105,0.221,600.0,720.0,750.0,0,0,0,0,1,1,0,1,1
118,121,1,0.003,0.026,0.055,600.0,720.0,750.0,0,0,0,0,1,1,0,1,1
118,121,2,0.003,0.026,0.055,600.0,720.0,750.0,0,0,0,0,1,1,0,1,1
119,120,1,0.005,0.04,0.083,600.0,720.0,750.0,0,0,0,0,1,1,0,1,1
119,120,2,0.005,0.04,0.083,600.0,720.0,750.0,0,0,0,0,1,1,0,1,1
120,123,1,0.003,0.022,0.046,600.0,720.0,750.0,0,0,0,0,1,1,0,1,1
120,123,2,0.003,0.022,0.046,600.0,720.0,750.0,0,0,0,0,1,1,0,1,1
121,122,1,0.009,0.068,0.142,600.0,720.0,750.0,0,0,0,0,1,1,0,1,1
123,217,1,0.01,0.074,0.155,600.0,720.0,750.0,0,0,0,0,1,1,0,1,1
201,202,1,0.003,0.014,0.461,210.0,231.6,240.0,0,0,0,0,1,1,0,1,1
201,203,1,0.055,0.211,0.057,210.0,249.6,264.0,0,0,0,0,1,1,0,1,1
201,205,1,0.022,0.085,0.023,210.0,249.6,264.0,0,0,0,0,1,1,0,1,1
202,204,1,0.033,0.127,0.034,210.0,249.6,264.0,0,0,0,0,1,1,0,1,1
202,206,1,0.05,0.192,0.052,210.0,249.6,264.0,0,0,0,0,1,1,0,1,1
203,209,1,0.031,0.119,0.032,210.0,249.6,264.0,0,0,0,0,1,1,0,1,1
204,209,1,0.027,0.104,0.028,210.0,249.6,264.0,0,0,0,0,1,1,0,1,1
205,210,1,0.023,0.088,0.024,210.0,249.6,264.0,0,0,0,0,1,1,0,1,1
206,210,1,0.014,0.061,2.459,210.0,231.6,240.0,0,0,0,0,1,1,0,1,1
207,208,1,0.016,0.061,0.017,210.0,249.6,264.0,0,0,0,0,1,1,0,1,1
208,209,1,0.043,0.165,0.045,210.0,249.6,264.0,0,0,0,0,1,1,0,1,1
208,210,1,0.043,0.165,0.045,210.0,249.6,264.0,0,0,0,0,1,1,0,1,1
211,213,1,0.006,0.048,0.1,600.0,720.0,750.0,0,0,0,0,1,1,0,1,1
211,214,1,0.005,0.042,0.088,600.0,720.0,750.0,0,0,0,0,1,1,0,1,1
212,213,1,0.006,0.048,0.1,600.0,720.0,750.0,0,0,0,0,1,1,0,1,1
212,223,1,0.012,0.097,0.203,600.0,720.0,750.0,0,0,0,0,1,1,0,1,1
213,223,1,0.011,0.087,0.182,600.0,720.0,750.0,0,0,0,0,1,1,0,1,1
214,216,1,0.005,0.059,0.082,600.0,720.0,750.0,0,0,0,0,1,1,0,1,1
215,216,1,0.002,0.017,0.036,600.0,720.0,750.0,0,0,0,0,1,1,0,1,1
215,221,1,0.006,0.049,0.103,600.0,720.0,750.0,0,0,0,0,1,1,0,1,1
215,221,2,0.006,0.049,0.103,600.0,720.0,750.0,0,0,0,0,1,1,0,1,1
215,224,1,0.007,0.052,0.109,600.0,720.0,750.0,0,0,0,0,1,1,0,1,1
216,217,1,0.003,0.026,0.055,600.0,720.0,750.0,0,0,0,0,1,1,0,1,1
216,219,1,0.003,0.023,0.049,600.0,720.0,750.0,0,0,0,0,1,1,0,1,1
217,218,1,0.002,0.014,0.03,600.0,720.0,750.0,0,0,0,0,1,1,0,1,1
217,222,1,0.014,0.105,0.221,600.0,720.0,750.0,0,0,0,0,1,1,0,1,1
218,221,1,0.003,0.026,0.055,600.0,720.0,750.0,0,0,0,0,1,1,0,1,1
218,221,2,0.003,0.026,0.055,600.0,720.0,750.0,0,0,0,0,1,1,0,1,1
219,220,1,0.005,0.04,0.083,600.0,720.0,750.0,0,0,0,0,1,1,0,1,1
219,220,2,0.005,0.04,0.083,600.0,720.0,750.0,0,0,0,0,1,1,0,1,1
220,223,1,0.003,0.022,0.046,600.0,720.0,750.0,0,0,0,0,1,1,0,1,1
220,223,2,0.003,0.022,0.046,600.0,720.0,750.0,0,0,0,0,1,1,0,1,1
221,222,1,0.009,0.068,0.142,600.0,720.0,750.0,0,0,0,0,1,1,0,1,1
301,302,1,0.003,0.014,0.461,210.0,231.6,240.0,0,0,0,0,1,1,0,1,1
301,303,1,0.055,0.211,0.057,210.0,249.6,264.0,0,0,0,0,1,1,0,1,1
301,305,1,0.022,0.085,0.023,210.0,249.6,264.0,0,0,0,0,1,1,0,1,1
302,304,1,0.033,0.127,0.034,210.0,249.6,264.0,0,0,0,0,1,1,0,1,1
302,306,1,0.05,0.192,0.052,210.0,249.6,264.0,0,0,0,0,1,1,0,1,1
303,309,1,0.031,0.119,0.032,210.0,249.6,264.0,0,0,0,0,1,1,0,1,1
304,309,1,0.027,0.104,0.028,210.0,249.6,264.0,0,0,0,0,1,1,0,1,1
305,310,1,0.023,0.088,0.024,210.0,249.6,264.0,0,0,0,0,1,1,0,1,1
306,310,1,0.014,0.061,2.459,210.0,231.6,240.0,0,0,0,0,1,1,0,1,1
307,308,1,0.016,0.061,0.017,210.0,249.6,264.0,0,0,0,0,1,1,0,1,1
308,309,1,0.043,0.165,0.045,210.0,249.6,264.0,0,0,0,0,1,1,0,1,1
308,310,1,0.043,0.165,0.045,210.0,249.6,264.0,0,0,0,0,1,1,0,1,1
311,313,1,0.006,0.048,0.1,600.0,720.0,750.0,0,0,0,0,1,1,0,1,1
311,314,1,0.005,0.042,0.088,600.0,720.0,750.0,0,0,0,0,1,1,0,1,1
312,313,1,0.006,0.048,0.1,600.0,720.0,750.0,0,0,0,0,1,1,0,1,1
312,323,1,0.012,0.097,0.203,600.0,720.0,750.0,0,0,0,0,1,1,0,1,1
313,323,1,0.011,0.087,0.182,600.0,720.0,750.0,0,0,0,0,1,1,0,1,1
314,316,1,0.005,0.059,0.082,600.0,720.0,750.0,0,0,0,0,1,1,0,1,1
315,316,1,0.002,0.017,0.036,600.0,720.0,750.0,0,0,0,0,1,1,0,1,1
315,321,1,0.006,0.049,0.103,600.0,720.0,750.0,0,0,0,0,1,1,0,1,1
315,321,2,0.006,0.049,0.103,600.0,720.0,750.0,0,0,0,0,1,1,0,1,1
315,324,1,0.007,0.052,0.109,600.0,720.0,750.0,0,0,0,0,1,1,0,1,1
316,317,1,0.003,0.026,0.055,600.0,720.0,750.0,0,0,0,0,1,1,0,1,1
316,319,1,0.003,0.023,0.049,600.0,720.0,750.0,0,0,0,0,1,1,0,1,1
317,318,1,0.002,0.014,0.03,600.0,720.0,750.0,0,0,0,0,1,1,0,1,1
317,322,1,0.014,0.105,0.221,600.0,720.0,750.0,0,0,0,0,1,1,0,1,1
318,223,1,0.013,0.104,0.218,600.0,720.0,750.0,0,0,0,0,1,1,0,1,1
318,321,1,0.003,0.026,0.055,600.0,720.0,750.0,0,0,0,0,1,1,0,1,1
318,321,2,0.003,0.026,0.055,600.0,720.0,750.0,0,0,0,0,1,1,0,1,1
319,320,1,0.005,0.04,0.083,600.0,720.0,750.0,0,0,0,0,1,1,0,1,1
319,320,2,0.005,0.04,0.083,600.0,720.0,750.0,0,0,0,0,1,1,0,1,1
320,323,1,0.003,0.022,0.046,600.0,720.0,750.0,0,0,0,0,1,1,0,1,1
320,323,2,0.003,0.022,0.046,600.0,720.0,750.0,0,0,0,0,1,1,0,1,1
321,322,1,0.009,0.068,0.142,600.0,720.0,750.0,0,0,0,0,1,1,0,1,1
323,325,1,0,0.009,0,866.4,1071.6,1071.6,0,0,0,0,1,1,0,1,1
325,121,1,0.012,0.097,0.203,600.0,720.0,750.0,0,0,0,0,1,1,0,1,1
0 / END OF BRANCH DATA, BEGIN TRANSFORMER DATA
  103 ,  124 , 0,  1 , 1, 1, 1, 0, 0, 2, '            ',  1 , 1, 1
   0.002000 ,  0.084000 ,  100.000000
   1.015000 , 0,  0.000000 ,  400.000000 ,  510.000000 ,  600.000000 , 0, 0,  1.10 ,  0.90 ,  1.10 ,  0.90 , 33, 0, 0, 0
   1.000000, 0
  109 ,  111 , 0,  1 , 1, 1, 1, 0, 0, 2, '            ',  1 , 1, 1
   0.002000 ,  0.084000 ,  100.000000
   1.030000 , 0,  0.000000 ,  400.000000 ,  510.000000 ,  600.000000 , 0, 0,  1.10 ,  0.90 ,  1.10 ,  0.90 , 33, 0, 0, 0
   1.000000, 0
  109 ,  112 , 0,  1 , 1, 1, 1, 0, 0, 2, '            ',  1 , 1, 1
   0.002000 ,  0.084000 ,  100.000000
   1.030000 , 0,  0.000000 ,  400.000000 ,  510.000000 ,  600.000000 , 0, 0,  1.10 ,  0.90 ,  1.10 ,  0.90 , 33, 0, 0, 0
   1.000000, 0
  110 ,  111 , 0,  1 , 1, 1, 1, 0, 0, 2, '            ',  1 , 1, 1
   0.002000 ,  0.084000 ,  100.000000
   1.015000 , 0,  0.000000 ,  400.000000 ,  510.000000 ,  600.000000 , 0, 0,  1.10 ,  0.90 ,  1.10 ,  0.90 , 33, 0, 0, 0
   1.000000, 0
  110 ,  112 , 0,  1 , 1, 1, 1, 0, 0, 2, '            ',  1 , 1, 1
   0.002000 ,  0.084000 ,  100.000000
   1.015000 , 0,  0.000000 ,  400.000000 ,  510.000000 ,  600.000000 , 0, 0,  1.10 ,  0.90 ,  1.10 ,  0.90 , 33, 0, 0, 0
   1.000000, 0
  203 ,  224 , 0,  1 , 1, 1, 1, 0, 0, 2, '            ',  1 , 1, 1
   0.002000 ,  0.084000 ,  100.000000
   1.015000 , 0,  0.000000 ,  400.000000 ,  510.000000 ,  600.000000 , 0, 0,  1.10 ,  0.90 ,  1.10 ,  0.90 , 33, 0, 0, 0
   1.000000, 0
  209 ,  211 , 0,  1 , 1, 1, 1, 0, 0, 2, '            ',  1 , 1, 1
   0.002000 ,  0.084000 ,  100.000000
   1.030000 , 0,  0.000000 ,  400.000000 ,  510.000000 ,  600.000000 , 0, 0,  1.10 ,  0.90 ,  1.10 ,  0.90 , 33, 0, 0, 0
   1.000000, 0
  209 ,  212 , 0,  1 , 1, 1, 1, 0, 0, 2, '            ',  1 , 1, 1
   0.002000 ,  0.084000 ,  100.000000
   1.030000 , 0,  0.000000 ,  400.000000 ,  510.000000 ,  600.000000 , 0, 0,  1.10 ,  0.90 ,  1.10 ,  0.90 , 33, 0, 0, 0
   1.000000, 0
  210 ,  211 , 0,  1 , 1, 1, 1, 0, 0, 2, '            ',  1 , 1, 1
   0.002000 ,  0.084000 ,  100.000000
   1.015000 , 0,  0.000000 ,  400.000000 ,  510.000000 ,  600.000000 , 0, 0,  1.10 ,  0.90 ,  1.10 ,  0.90 , 33, 0, 0, 0
   1.000000, 0
  210 ,  212 , 0,  1 , 1, 1, 1, 0, 0, 2, '            ',  1 , 1, 1
   0.002000 ,  0.084000 ,  100.000000
   1.015000 , 0,  0.000000 ,  400.000000 ,  510.000000 ,  600.000000 , 0, 0,  1.10 ,  0.90 ,  1.10 ,  0.90 , 33, 0, 0, 0
   1.000000, 0
  303 ,  324 , 0,  1 , 1, 1, 1, 0, 0, 2, '            ',  1 , 1, 1
   0.002000 ,  0.084000 ,  100.000000
   1.015000 , 0,  0.000000 ,  400.000000 ,  510.000000 ,  600.000000 , 0, 0,  1.10 ,  0.90 ,  1.10 ,  0.90 , 33, 0, 0, 0
   1.000000, 0
  309 ,  311 , 0,  1 , 1, 1, 1, 0, 0, 2, '            ',  1 , 1, 1
   0.002000 ,  0.084000 ,  100.000000
   1.030000 , 0,  0.000000 ,  400.000000 ,  510.000000 ,  600.000000 , 0, 0,  1.10 ,  0.90 ,  1.10 ,  0.90 , 33, 0, 0, 0
   1.000000, 0
  309 ,  312 , 0,  1 , 1, 1, 1, 0, 0, 2, '            ',  1 , 1, 1
   0.002000 ,  0.084000 ,  100.000000
   1.030000 , 0,  0.000000 ,  400.000000 ,  510.000000 ,  600.000000 , 0, 0,  1.10 ,  0.90 ,  1.10 ,  0.90 , 33, 0, 0, 0
   1.000000, 0
  310 ,  311 , 0,  1 , 1, 1, 1, 0, 0, 2, '            ',  1 , 1, 1
   0.002000 ,  0.084000 ,  100.000000
   1.015000 , 0,  0.000000 ,  400.000000 ,  510.000000 ,  600.000000 , 0, 0,  1.10 ,  0.90 ,  1.10 ,  0.90 , 33, 0, 0, 0
   1.000000, 0
  310 ,  312 , 0,  1 , 1, 1, 1, 0, 0, 2, '            ',  1 , 1, 1
   0.002000 ,  0.084000 ,  100.000000
   1.015000 , 0,  0.000000 ,  400.000000 ,  510.000000 ,  600.000000 , 0, 0,  1.10 ,  0.90 ,  1.10 ,  0.90 , 33, 0, 0, 0
   1.000000, 0
0 / END OF TRANSFORMER DATA, BEGIN AREA DATA
0 / END OF AREA DATA, BEGIN TWO-TERMINAL DC DATA
0 / END OF TWO-TERMINAL DC DATA, BEGIN VSC DC LINE DATA
0 / END OF VSC DC LINE DATA, BEGIN SWITCHED SHUNT DATA
0 / END OF SWITCHED SHUNT DATA, BEGIN IMPEDANCE CORRECTION DATA
0 / END OF IMPEDANCE CORRECTION DATA, BEGIN MULTI-TERMINAL DC DATA
0 / END OF MULTI-TERMINAL DC DATA, BEGIN MULTI-SECTION LINE DATA
0 / END OF MULTI-SECTION LINE DATA, BEGIN ZONE DATA
0 / END OF ZONE DATA, BEGIN INTER-AREA TRANSFER DATA
0 / END OF INTER-AREA TRANSFER DATA, BEGIN OWNER DATA
0 / END OF OWNER DATA, BEGIN FACTS CONTROL DEVICE DATA
0 / END OF FACTS CONTROL DEVICE DATA
0 / END OF SWITCHED SHUNT DATA, BEGIN GNE DATA
0 / END OF GNE DATA, BEGIN INDUCTION MACHINE DATA
0 / END OF INDUCTION MACHINE DATA
Q 
